
*** ChampSim Multicore Out-of-Order Simulator ***

Warmup Instructions: 1000000
Simulation Instructions: 10000000
Number of CPUs: 1
LLC sets: 2048
LLC ways: 16
Off-chip DRAM Size: 4096 MB Channels: 1 Width: 64-bit Data Rate: 3200 MT/s

CPU 0 runs /workspace/personal/caws/ChampSim-CAWS//./champsim.trace.gz
CPU 0 Bimodal branch predictor
*** Reached end of trace for Core: 0 Repeating trace: /workspace/personal/caws/ChampSim-CAWS//./champsim.trace.gz
*** Reached end of trace for Core: 0 Repeating trace: /workspace/personal/caws/ChampSim-CAWS//./champsim.trace.gz
*** Reached end of trace for Core: 0 Repeating trace: /workspace/personal/caws/ChampSim-CAWS//./champsim.trace.gz

Warmup complete CPU 0 instructions: 1000002 cycles: 389508 (Simulation time: 0 hr 0 min 7 sec) 

*** Reached end of trace for Core: 0 Repeating trace: /workspace/personal/caws/ChampSim-CAWS//./champsim.trace.gz
*** Reached end of trace for Core: 0 Repeating trace: /workspace/personal/caws/ChampSim-CAWS//./champsim.trace.gz
*** Reached end of trace for Core: 0 Repeating trace: /workspace/personal/caws/ChampSim-CAWS//./champsim.trace.gz
*** Reached end of trace for Core: 0 Repeating trace: /workspace/personal/caws/ChampSim-CAWS//./champsim.trace.gz
*** Reached end of trace for Core: 0 Repeating trace: /workspace/personal/caws/ChampSim-CAWS//./champsim.trace.gz
*** Reached end of trace for Core: 0 Repeating trace: /workspace/personal/caws/ChampSim-CAWS//./champsim.trace.gz
*** Reached end of trace for Core: 0 Repeating trace: /workspace/personal/caws/ChampSim-CAWS//./champsim.trace.gz
*** Reached end of trace for Core: 0 Repeating trace: /workspace/personal/caws/ChampSim-CAWS//./champsim.trace.gz
*** Reached end of trace for Core: 0 Repeating trace: /workspace/personal/caws/ChampSim-CAWS//./champsim.trace.gz
*** Reached end of trace for Core: 0 Repeating trace: /workspace/personal/caws/ChampSim-CAWS//./champsim.trace.gz
*** Reached end of trace for Core: 0 Repeating trace: /workspace/personal/caws/ChampSim-CAWS//./champsim.trace.gz
*** Reached end of trace for Core: 0 Repeating trace: /workspace/personal/caws/ChampSim-CAWS//./champsim.trace.gz
*** Reached end of trace for Core: 0 Repeating trace: /workspace/personal/caws/ChampSim-CAWS//./champsim.trace.gz
*** Reached end of trace for Core: 0 Repeating trace: /workspace/personal/caws/ChampSim-CAWS//./champsim.trace.gz
*** Reached end of trace for Core: 0 Repeating trace: /workspace/personal/caws/ChampSim-CAWS//./champsim.trace.gz
*** Reached end of trace for Core: 0 Repeating trace: /workspace/personal/caws/ChampSim-CAWS//./champsim.trace.gz
*** Reached end of trace for Core: 0 Repeating trace: /workspace/personal/caws/ChampSim-CAWS//./champsim.trace.gz
*** Reached end of trace for Core: 0 Repeating trace: /workspace/personal/caws/ChampSim-CAWS//./champsim.trace.gz
*** Reached end of trace for Core: 0 Repeating trace: /workspace/personal/caws/ChampSim-CAWS//./champsim.trace.gz
*** Reached end of trace for Core: 0 Repeating trace: /workspace/personal/caws/ChampSim-CAWS//./champsim.trace.gz
*** Reached end of trace for Core: 0 Repeating trace: /workspace/personal/caws/ChampSim-CAWS//./champsim.trace.gz
*** Reached end of trace for Core: 0 Repeating trace: /workspace/personal/caws/ChampSim-CAWS//./champsim.trace.gz
*** Reached end of trace for Core: 0 Repeating trace: /workspace/personal/caws/ChampSim-CAWS//./champsim.trace.gz
*** Reached end of trace for Core: 0 Repeating trace: /workspace/personal/caws/ChampSim-CAWS//./champsim.trace.gz
*** Reached end of trace for Core: 0 Repeating trace: /workspace/personal/caws/ChampSim-CAWS//./champsim.trace.gz
*** Reached end of trace for Core: 0 Repeating trace: /workspace/personal/caws/ChampSim-CAWS//./champsim.trace.gz
*** Reached end of trace for Core: 0 Repeating trace: /workspace/personal/caws/ChampSim-CAWS//./champsim.trace.gz
*** Reached end of trace for Core: 0 Repeating trace: /workspace/personal/caws/ChampSim-CAWS//./champsim.trace.gz
*** Reached end of trace for Core: 0 Repeating trace: /workspace/personal/caws/ChampSim-CAWS//./champsim.trace.gz
*** Reached end of trace for Core: 0 Repeating trace: /workspace/personal/caws/ChampSim-CAWS//./champsim.trace.gz
Heartbeat CPU 0 instructions: 10000002 cycles: 10450733 heartbeat IPC: 0.956871 cumulative IPC: 0.894523 (Simulation time: 0 hr 0 min 40 sec) 
*** Reached end of trace for Core: 0 Repeating trace: /workspace/personal/caws/ChampSim-CAWS//./champsim.trace.gz
*** Reached end of trace for Core: 0 Repeating trace: /workspace/personal/caws/ChampSim-CAWS//./champsim.trace.gz
*** Reached end of trace for Core: 0 Repeating trace: /workspace/personal/caws/ChampSim-CAWS//./champsim.trace.gz
*** Reached end of trace for Core: 0 Repeating trace: /workspace/personal/caws/ChampSim-CAWS//./champsim.trace.gz
Finished CPU 0 instructions: 10000000 cycles: 11201987 cumulative IPC: 0.892699 (Simulation time: 0 hr 0 min 45 sec) 

ChampSim completed all CPUs

Region of Interest Statistics

CPU 0 cumulative IPC: 0.892699 instructions: 10000000 cycles: 11201987
L1D TOTAL     ACCESS:    2431469  HIT:    2309243  MISS:     122226
L1D LOAD      ACCESS:    1601289  HIT:    1500799  MISS:     100490
L1D RFO       ACCESS:     830180  HIT:     808444  MISS:      21736
L1D PREFETCH  ACCESS:          0  HIT:          0  MISS:          0
L1D WRITEBACK ACCESS:          0  HIT:          0  MISS:          0
L1D PREFETCH  REQUESTED:          0  ISSUED:          0  USEFUL:          0  USELESS:          0
L1D AVERAGE MISS LATENCY: 15.0238 cycles
L1I TOTAL     ACCESS:    1799560  HIT:    1753049  MISS:      46511
L1I LOAD      ACCESS:    1799560  HIT:    1753049  MISS:      46511
L1I RFO       ACCESS:          0  HIT:          0  MISS:          0
L1I PREFETCH  ACCESS:          0  HIT:          0  MISS:          0
L1I WRITEBACK ACCESS:          0  HIT:          0  MISS:          0
L1I PREFETCH  REQUESTED:          0  ISSUED:          0  USEFUL:          0  USELESS:          0
L1I AVERAGE MISS LATENCY: 14.0431 cycles
L2C TOTAL     ACCESS:     194895  HIT:     194895  MISS:          0
L2C LOAD      ACCESS:     147001  HIT:     147001  MISS:          0
L2C RFO       ACCESS:      21737  HIT:      21737  MISS:          0
L2C PREFETCH  ACCESS:          0  HIT:          0  MISS:          0
L2C WRITEBACK ACCESS:      26157  HIT:      26157  MISS:          0
L2C PREFETCH  REQUESTED:          0  ISSUED:          0  USEFUL:          0  USELESS:          0
L2C AVERAGE MISS LATENCY: -nan cycles
LLC TOTAL     ACCESS:          0  HIT:          0  MISS:          0
LLC LOAD      ACCESS:          0  HIT:          0  MISS:          0
LLC RFO       ACCESS:          0  HIT:          0  MISS:          0
LLC PREFETCH  ACCESS:          0  HIT:          0  MISS:          0
LLC WRITEBACK ACCESS:          0  HIT:          0  MISS:          0
LLC PREFETCH  REQUESTED:          0  ISSUED:          0  USEFUL:          0  USELESS:          0
LLC AVERAGE MISS LATENCY: -nan cycles
Major fault: 0 Minor fault: 172

DRAM Statistics
 CHANNEL 0
 RQ ROW_BUFFER_HIT:          0  ROW_BUFFER_MISS:          0
 DBUS_CONGESTED:          0
 WQ ROW_BUFFER_HIT:          0  ROW_BUFFER_MISS:          0  FULL:          0

 AVG_CONGESTED_CYCLE: -

CPU 0 Branch Prediction Accuracy: 91.9868% MPKI: 16.8866 Average ROB Occupancy at Mispredict: 20.8477

Branch types
NOT_BRANCH: 7892323 78.9232%
BRANCH_DIRECT_JUMP: 130395 1.30395%
BRANCH_INDIRECT: 15829 0.15829%
BRANCH_CONDITIONAL: 1767346 17.6735%
BRANCH_DIRECT_CALL: 91124 0.91124%
BRANCH_INDIRECT_CALL: 5973 0.05973%
BRANCH_RETURN: 96690 0.9669%
BRANCH_OTHER: 0 0%

